Clear
New Circuit.ieee123


Redirect LineCode.dss
Redirect feeder\Branches.dss
Redirect feeder\Transformers.dss
Redirect feeder\Loads.dss
Redirect feeder\Capacitors.dss
MakeBusList
Redirect BusVoltageBases.dss  ! set voltage bases
